*Heading
** Job name: Fig2-NNmode Model name: hole-1-mode
** Generated by: Abaqus/CAE 2023
*Preprint, echo=NO, model=NO, history=NO, contact=NO
**
** PARTS
**
*Part, name=ACCOUNTING-MESH-1
*Node
      1,   395.180603,  -89.2416382,           0.
      2,   395.212402,  -88.3456421,           0.
      3,    396.78418,  -87.9616394,           0.
      4,   398.324188,  -89.2416382,           0.
      5,   398.355988,  -88.3456421,           0.
      6,   399.927795,  -87.9616394,           0.
      7,   401.467773,  -89.2416382,           0.
      8,   401.499573,  -88.3456421,           0.
      9,   403.071381,  -87.9616394,           0.
     10,   404.611389,  -89.2416382,           0.
     11,   404.643188,  -88.3456421,           0.
     12,   406.183197,  -87.0656433,           0.
     13,   406.214996,  -86.1696396,           0.
     14,   404.643188,  -85.7856445,           0.
     15,   404.611389,  -84.8896408,           0.
     16,   404.643188,  -83.9936447,           0.
     17,   403.071381,   -83.609642,           0.
     18,   403.039581,  -82.7136383,           0.
     19,   403.071381,  -81.8176422,           0.
     20,   401.499573,  -81.4336395,           0.
** ... 1321 like lines cut
*Element, type=T3D2
   1,    1,    2
   2,    2,    3
   3,    4,    3
   4,    4,    5
   5,    5,    6
   6,    7,    6
   7,    7,    8
   8,    8,    9
   9,   10,    9
  10,   10,   11
  11,   12,   11
  12,   12,   13
  13,   14,   13
  14,   15,   14
  15,   15,   16
  16,   17,   16
  17,   18,   17
  18,   18,   19
  19,   20,   19
  20,   18,   20
** ... 2526 like lines cut
*Nset, nset=SET-1, generate
    1,  1341,     1
*Elset, elset=SET-1
    1,    2,    3,    4,    5,    6,    7,    8,    9,   10,   11,   12,   13,   14,   15,   16
   17,   18,   19,   20,   21,   22,   23,   24,   25,   26,   27,   28,   29,   30,   31,   32
   33,   34,   35,   36,   37,   38,   39,   40,   41,   42,   43,   44,   45,   46,   47,   48
   49,   50,   51,   52,   53,   54,   55,   56,   57,   58,   59,   60,   61,   62,   63,   64
   65,   66,   67,   68,   69,   70,   71,   72,   73,   74,   75,   76,   77,   78,   79,   80
   81,   82,   83,   84,   85,   86,   87,   88,   89,   90,   91,   92,   93,   94,   95,   96
   97,   98,   99,  100,  101,  102,  103,  104,  105,  106,  107,  108,  109,  110,  111,  112
  113,  114,  115,  116,  117,  118,  119,  120,  121,  122,  123,  124,  125,  126,  127,  128
  129,  130,  131,  132,  133,  134,  135,  136,  137,  138,  139,  140,  141,  142,  143,  144
  145,  146,  147,  148,  149,  150,  151,  152,  153,  154,  155,  156,  157,  158,  159,  160
  161,  162,  163,  164,  165,  166,  167,  168,  169,  170,  171,  172,  173,  174,  175,  176
  177,  178,  179,  180,  181,  182,  183,  184,  185,  186,  187,  188,  189,  190,  191,  192
  193,  194,  195,  196,  197,  198,  199,  200,  201,  202,  203,  204,  205,  206,  207,  208
  209,  210,  211,  212,  213,  214,  215,  216,  217,  218,  219,  220,  221,  222,  223,  224
  225,  226,  227,  228,  229,  230,  231,  232,  233,  234,  235,  236,  237,  238,  239,  240
  241,  242,  243,  244,  245,  246,  247,  248,  249,  250,  251,  252,  253,  254,  255,  256
  257,  258,  259,  260,  261,  262,  263,  264,  265,  266,  267,  268,  269,  270,  271,  272
  273,  274,  275,  276,  277,  278,  279,  280,  281,  282,  283,  284,  285,  286,  287,  288
  289,  290,  291,  292,  293,  294,  295,  296,  297,  298,  299,  300,  301,  302,  303,  304
  305,  306,  307,  308,  309,  310,  311,  312,  313,  314,  315,  316,  317,  318,  319,  320
** ... 140 like lines cut
** Section: Section-1-SET-1
*Solid Section, elset=SET-1, material=MATERIAL-1
1.,
*End Part
**  
**
** ASSEMBLY
**
*Assembly, name=Assembly
**  
*Instance, name=ACCOUNTING-MESH-1-1, part=ACCOUNTING-MESH-1
 -398.355988,    75.289642,           0.
*End Instance
**  
*Nset, nset=SET-1, instance=ACCOUNTING-MESH-1-1
  767,  780,  798,  811,  847,  860,  878,  891, 1187, 1189, 1191, 1193, 1196, 1199, 1202, 1204
 1215, 1227, 1240, 1315, 1317, 1320, 1330, 1333, 1341
*Nset, nset=SET-2, instance=ACCOUNTING-MESH-1-1
  589,  602,  620,  633,  669,  682,  700,  713, 1120, 1122, 1124, 1126, 1129, 1132, 1135, 1137
 1148, 1160, 1173, 1303, 1305, 1308, 1325, 1328, 1339
*Nset, nset=SET-3, instance=ACCOUNTING-MESH-1-1
 979,
*Nset, nset=SET-4, instance=ACCOUNTING-MESH-1-1
 1335,
*Nset, nset=SET-5, instance=ACCOUNTING-MESH-1-1
 965,
*Nset, nset=SET-6, instance=ACCOUNTING-MESH-1-1
 1309,
*Nset, nset=SET-7, instance=ACCOUNTING-MESH-1-1
 570,
*Nset, nset=SET-8, instance=ACCOUNTING-MESH-1-1
 1271,
*Nset, nset=SET-9, instance=ACCOUNTING-MESH-1-1
 409,
*Nset, nset=SET-10, instance=ACCOUNTING-MESH-1-1
 1025,
*Nset, nset=SET-11, instance=ACCOUNTING-MESH-1-1
 166,
*Nset, nset=SET-12, instance=ACCOUNTING-MESH-1-1
 740,
*Nset, nset=SET-13, instance=ACCOUNTING-MESH-1-1
 73,
*Nset, nset=SET-14, instance=ACCOUNTING-MESH-1-1
 1180,
*Nset, nset=SET-15, instance=ACCOUNTING-MESH-1-1
 84,
*Nset, nset=SET-16, instance=ACCOUNTING-MESH-1-1
 1274,
*Nset, nset=SET-17, instance=ACCOUNTING-MESH-1-1
 97,
*Nset, nset=SET-18, instance=ACCOUNTING-MESH-1-1
 1248,
*Nset, nset=SET-19, instance=ACCOUNTING-MESH-1-1
 85,
*Nset, nset=SET-20, instance=ACCOUNTING-MESH-1-1
 1104,
*Nset, nset=SET-21, instance=ACCOUNTING-MESH-1-1
 23,
*Nset, nset=SET-22, instance=ACCOUNTING-MESH-1-1
** ... 25 like lines cut
** Constraint: Eqn-1
*Equation
2
SET-7, 2, -1.
SET-8, 2, 1.
** Constraint: Eqn-2
*Equation
2
SET-5, 2, 1.
SET-6, 2, -1.
** Constraint: Eqn-3
*Equation
2
SET-3, 2, 1.
SET-4, 2, -1.
** Constraint: Eqn-4
*Equation
2
SET-33, 2, 1.
SET-34, 2, -1.
** Constraint: Eqn-5
*Equation
2
SET-31, 2, 1.
SET-32, 2, -1.
** Constraint: Eqn-6
*Equation
2
SET-29, 2, 1.
SET-30, 2, -1.
** Constraint: Eqn-7
*Equation
2
SET-28, 2, 1.
SET-27, 2, -1.
** Constraint: Eqn-8
*Equation
2
SET-25, 2, 1.
SET-26, 2, -1.
** Constraint: Eqn-9
*Equation
2
SET-24, 2, 1.
SET-23, 2, -1.
** Constraint: Eqn-10
*Equation
2
SET-21, 2, 1.
SET-22, 2, -1.
** Constraint: Eqn-11
*Equation
2
SET-19, 2, 1.
SET-20, 2, -1.
** Constraint: Eqn-12
*Equation
2
SET-18, 2, 1.
SET-17, 2, -1.
** Constraint: Eqn-13
*Equation
2
SET-15, 2, 1.
SET-16, 2, -1.
** Constraint: Eqn-14
*Equation
2
SET-13, 2, 1.
SET-14, 2, -1.
** Constraint: Eqn-15
*Equation
2
SET-11, 2, 1.
SET-12, 2, -1.
** Constraint: Eqn-16
*Equation
2
SET-9, 2, 1.
SET-10, 2, -1.
** Constraint: Eqn-17
*Equation
2
SET-7, 1, -1.
SET-8, 1, 1.
** Constraint: Eqn-18
*Equation
2
SET-5, 1, 1.
SET-6, 1, -1.
** Constraint: Eqn-19
*Equation
2
SET-3, 1, 1.
SET-4, 1, -1.
** Constraint: Eqn-20
*Equation
2
SET-33, 1, 1.
SET-34, 1, -1.
** Constraint: Eqn-21
*Equation
2
SET-31, 1, 1.
SET-32, 1, -1.
** Constraint: Eqn-22
*Equation
2
SET-29, 1, 1.
SET-30, 1, -1.
** Constraint: Eqn-23
*Equation
2
SET-28, 1, 1.
SET-27, 1, -1.
** Constraint: Eqn-24
*Equation
2
SET-25, 1, 1.
SET-26, 1, -1.
** Constraint: Eqn-25
*Equation
2
SET-24, 1, 1.
SET-23, 1, -1.
** Constraint: Eqn-26
*Equation
2
SET-21, 1, 1.
SET-22, 1, -1.
** Constraint: Eqn-27
*Equation
2
SET-19, 1, 1.
SET-20, 1, -1.
** Constraint: Eqn-28
*Equation
2
SET-18, 1, 1.
SET-17, 1, -1.
** Constraint: Eqn-29
*Equation
2
SET-15, 1, 1.
SET-16, 1, -1.
** Constraint: Eqn-30
*Equation
2
SET-13, 1, 1.
SET-14, 1, -1.
** Constraint: Eqn-31
*Equation
2
SET-11, 1, 1.
SET-12, 1, -1.
** Constraint: Eqn-32
*Equation
2
SET-9, 1, 1.
SET-10, 1, -1.
*End Assembly
** 
** MATERIALS
** 
*Material, name=MATERIAL-1
*Density
1.,
*Elastic
90000., 0.3
** ----------------------------------------------------------------
** 
** STEP: Step-1
** 
*Step, name=Step-1, nlgeom=NO, perturbation
*Frequency, sim =YES, eigensolver=subspace, normalization=mass
40, , , 48, 30000
** 
** BOUNDARY CONDITIONS
** 
** Name: Disp-BC-1 Type: Displacement/Rotation
*Boundary
SET-1, 1, 1
** Name: Disp-BC-2 Type: Displacement/Rotation
*Boundary
SET-1, 2, 2
** Name: Disp-BC-3 Type: Displacement/Rotation
*Boundary
SET-2, 1, 1
** Name: Disp-BC-4 Type: Displacement/Rotation
*Boundary
SET-2, 2, 2
** 
** OUTPUT REQUESTS
** 
*Restart, write, frequency=0
** 
** FIELD OUTPUT: F-Output-1
** 
*Output, field
*Node Output
U, 
*End Step
