*Heading
** Job name: Nowall_3hinge Model name: Nowall_3hinge
** Generated by: Abaqus/CAE 2023
*Preprint, echo=NO, model=NO, history=NO, contact=NO
**
** PARTS
**
*Part, name=Part-24
*Node
      1,  0.196108252,   1.86124313,           0.
      2,   -0.1898323,   2.18201351,           0.
      3, -0.112638079,   2.11786556,           0.
      4, -0.0354591273,    2.0536871,           0.
      5, 0.0417350866,   1.98953903,           0.
      6,  0.118929304,   1.92539108,           0.
      7,  0.291368872,   1.86124313,           0.
      8,  0.294939429,   1.96204269,           0.
      9,  0.298525244,   2.06284237,           0.
     10,  0.302095801,   2.16364193,           0.
     11, -0.344205469,   2.31033993,           0.
     12, -0.267011255,   2.24616146,           0.
     13, -0.575772822,   2.50278378,           0.
     14, -0.498578638,   2.43863583,           0.
     15, -0.421384424,   2.37448788,           0.
     16,  0.305681616,   2.26447201,           0.
     17,  0.309252173,   2.36527157,           0.
     18,  0.312837988,   2.46607113,           0.
     19, -0.652951777,   2.56696224,           0.
     20,  0.316412359,   2.56687069,           0.
** ... 45669 like lines cut
*Element, type=S3
1, 40847, 15638, 15605
2, 40887, 40859, 40885
3, 40910, 40899, 40901
92, 15626, 40912, 15625
103, 38465, 14163, 38470
196, 40654, 40652, 15494
197, 40489, 40471, 40488
198, 40505, 40676, 40496
289, 40741, 15528, 40746
379, 15448, 40507, 15447
391, 43281, 43279, 17193
392, 43144, 43120, 43142
393, 43167, 43156, 43158
484, 43351, 17231, 43356
574, 17089, 43171, 15592
583, 43362, 17300, 17259
584, 43402, 43374, 43400
585, 43425, 43414, 43416
674, 17258, 43429, 17257
687, 38581, 38579, 14253
** ... 900 like lines cut
*Element, type=S4R
 4, 40854, 15696, 15697, 40851
 5, 40877, 40882, 40876, 40853
 6, 40850, 40852, 15610, 15611
 7, 15701, 40847, 40853, 15700
 8, 40851, 40891, 40897, 40854
 9, 40873, 40896, 40879, 40849
10, 15612, 15613, 40872, 40878
11, 40870, 40871, 40892, 40893
12, 40857, 40856, 15614, 15615
13, 40867, 40868, 15616, 15617
14, 15631, 40858, 40859, 15630
15, 40859, 40860, 15629, 15630
16, 40860, 40861, 15628, 15629
17, 40905, 40861, 40862, 40863
18, 15627, 40905, 40863, 15626
19, 15622, 40912, 15626, 40863
20, 15620, 15621, 40862, 40864
21, 40864, 40862, 40861, 40906
22, 40865, 40864, 40906, 40907
23, 40907, 40887, 40866, 40865
** ... 35588 like lines cut
*Elset, elset=SET-1
     1,     2,     3,     4,     5,     6,     7,     8,     9,    10,    11,    12,    13,    14,    15,    16
    17,    18,    19,    20,    21,    22,    23,    24,    25,    26,    27,    28,    29,    30,    31,    32
    33,    34,    35,    36,    37,    38,    39,    40,    41,    42,    43,    44,    45,    46,    47,    48
    49,    50,    51,    52,    53,    54,    55,    56,    57,    58,    59,    60,    61,    62,    63,    64
    65,    66,    67,    68,    69,    70,    71,    72,    73,    74,    75,    76,    77,    78,    79,    80
    81,    82,    83,    84,    85,    86,    87,    88,    89,    90,    91,    92,    93,    94,    95,    96
    97,    98,    99,   100,   101,   102,   103,   104,   105,   106,   107,   108,   109,   110,   111,   112
   113,   114,   115,   116,   117,   118,   119,   120,   121,   122,   123,   124,   125,   126,   127,   128
   129,   130,   131,   132,   133,   134,   135,   136,   137,   138,   139,   140,   141,   142,   143,   144
   145,   146,   147,   148,   149,   150,   151,   152,   153,   154,   155,   156,   157,   158,   159,   160
   161,   162,   163,   164,   165,   166,   167,   168,   169,   170,   171,   172,   173,   174,   175,   176
   177,   178,   179,   180,   181,   182,   183,   184,   185,   186,   187,   188,   189,   190,   191,   192
   193,   194,   195,   196,   197,   198,   199,   200,   201,   202,   203,   204,   205,   206,   207,   208
   209,   210,   211,   212,   213,   214,   215,   216,   217,   218,   219,   220,   221,   222,   223,   224
   225,   226,   227,   228,   229,   230,   231,   232,   233,   234,   235,   236,   237,   238,   239,   240
   241,   242,   243,   244,   245,   246,   247,   248,   249,   250,   251,   252,   253,   254,   255,   256
   257,   258,   259,   260,   261,   262,   263,   264,   265,   266,   267,   268,   269,   270,   271,   272
   273,   274,   275,   276,   277,   278,   279,   280,   281,   282,   283,   284,   285,   286,   287,   288
   289,   290,   291,   292,   293,   294,   295,   296,   297,   298,   299,   300,   301,   302,   303,   304
   305,   306,   307,   308,   309,   310,   311,   312,   313,   314,   315,   316,   317,   318,   319,   320
** ... 2263 like lines cut
** Section: Section-1-SET-1
*Shell Section, elset=SET-1, material=MATERIAL-1
0.1, 5
*End Part
**  
**
** ASSEMBLY
**
*Assembly, name=Assembly
**  
*Instance, name=Part-24-1, part=Part-24
*End Instance
**  
*Nset, nset=SET-1, instance=Part-24-1
  1408,  1410,  1411,  1412,  1442,  1448,  1479,  2910,  2912,  2913,  2914,  2937,  2943,  2971,  4505,  4507
  4508,  4509,  4521,  4527,  4548,  6099,  6100,  6117,  6119,  6122,  6128,  6142,  7704,  7706,  7707,  7708
  7722,  7726,  7728,  9309,  9317,  9319,  9320,  9324,  9330,  9353, 10899, 10901, 10902, 10903, 10910, 10916
 10938, 12495, 12504, 12506, 12507, 12511, 12517, 12536, 14078, 14079, 14105, 14106, 14110, 14116, 14132, 15605
 15607, 15608, 15609, 15638, 15695, 15701, 17259, 17261, 17262, 17263, 17286, 17292, 17300, 18808, 18810, 18811
 18812, 18824, 18830, 18832, 21060, 21066, 23452, 23458, 25861, 25867, 28289, 28295, 30747, 30753, 33229, 33233
 35725, 35731, 38243, 38247, 40847, 40853, 40915, 40919, 43362, 43368, 45639, 45645
*Nset, nset=SET-2, instance=Part-24-1
     1,     6,     7,     8,    82,  1522,  1527,  1528,  1529,  1586,  3035,  3040,  3041,  3042,  3079,  4632
  4633,  4634,  4635,  4658,  6219,  6224,  6225,  6226,  6243,  7833,  7835,  7836,  7837,  7870,  9432,  9436
  9437,  9438,  9472, 11024, 11026, 11027, 11028, 11057, 12617, 12630, 12631, 12632, 12657, 14133, 14138, 14166
 14233, 14234, 15778, 15783, 15784, 15785, 15820, 17380, 17385, 17386, 17387, 17403, 18834, 18844, 21213, 21223
 23608, 23618, 26019, 26029, 28445, 28455, 30926, 30935, 33370, 33380, 35888, 35897, 38405, 38415, 38473, 38480
 41102, 41112, 43515, 43525
*End Assembly
*Amplitude, name=AMP-1
             0.,              0.,             0.5,             0.8
** 
** MATERIALS
** 
*Material, name=MATERIAL-1
*Damage Initiation, criterion=DUCTILE
 1e-05, 0.333,    0.
*Damage Evolution, type=DISPLACEMENT
 0.01,
*Density
 1e-06,
*Elastic
 5e+06, 0.3
*Plastic
300.,  0.
400., 0.2
** ----------------------------------------------------------------
** 
** STEP: Step-1
** 
*Step, name=Step-1, nlgeom=YES
*Dynamic, Explicit
, 0.5
*Bulk Viscosity
0.06, 1.2
** 
** BOUNDARY CONDITIONS
** 
** Name: Disp-BC-1 Type: Displacement/Rotation
*Boundary, amplitude=AMP-1
SET-1, 1, 1
** Name: Disp-BC-2 Type: Displacement/Rotation
*Boundary, amplitude=AMP-1
SET-1, 2, 2, 0.5
** Name: Disp-BC-3 Type: Displacement/Rotation
*Boundary, amplitude=AMP-1
SET-1, 3, 3
** Name: Disp-BC-4 Type: Displacement/Rotation
*Boundary, amplitude=AMP-1
SET-1, 4, 4
** Name: Disp-BC-5 Type: Displacement/Rotation
*Boundary, amplitude=AMP-1
SET-1, 5, 5
** Name: Disp-BC-6 Type: Displacement/Rotation
*Boundary, amplitude=AMP-1
SET-1, 6, 6
** Name: Disp-BC-7 Type: Displacement/Rotation
*Boundary, amplitude=AMP-1
SET-2, 1, 1
** Name: Disp-BC-8 Type: Displacement/Rotation
*Boundary, amplitude=AMP-1
SET-2, 2, 2, -0.5
** Name: Disp-BC-9 Type: Displacement/Rotation
*Boundary, amplitude=AMP-1
SET-2, 3, 3
** Name: Disp-BC-10 Type: Displacement/Rotation
*Boundary, amplitude=AMP-1
SET-2, 4, 4
** Name: Disp-BC-11 Type: Displacement/Rotation
*Boundary, amplitude=AMP-1
SET-2, 5, 5
** Name: Disp-BC-12 Type: Displacement/Rotation
*Boundary, amplitude=AMP-1
SET-2, 6, 6
** 
** OUTPUT REQUESTS
** 
*Restart, write, number interval=1, time marks=NO
** 
** FIELD OUTPUT: F-Output-1
** 
*Output, field, variable=PRESELECT, number interval=200
** 
** HISTORY OUTPUT: H-Output-1
** 
*Output, history, variable=PRESELECT
*End Step
