*Heading
** Job name: swall_static Model name: StraightWall_3hinges2-static
** Generated by: Abaqus/CAE 2023
*Preprint, echo=NO, model=NO, history=NO, contact=NO
**
** PARTS
**
*Part, name=PART-8
*Node
      1,  -28.3688297,  -16.3411274,           0.
      2,  -28.4381809,  -16.2097492,           0.
      3,  -28.2970085,  -16.1627769,           0.
      4,  -28.2691307,  -16.2199287,           0.
      5,  -28.3359623,  -16.1884422,           0.
      6,   -28.368845,  -16.2001915,           0.
      7,  -28.4035435,  -16.2040367,           0.
      8,  -28.3534393,  -16.3030815,           0.
      9,  -28.3352451,  -16.2717571,           0.
     10,  -28.2990513,  -16.2396526,           0.
     11,  -28.0751438,  -15.9869251,           0.
     12,   -28.152338,  -16.0510731,           0.
     13,   -28.229517,  -16.1152515,           0.
     14,  -28.2026386,   -16.188076,           0.
     15,  -28.1553898,  -16.1765308,           0.
     16,  -28.0562382,  -16.1523304,           0.
     17,  -27.9571018,  -16.1280994,           0.
     18,   -28.403513,  -16.2754383,           0.
     19,  -27.8579655,   -16.103899,           0.
     20,  -27.7588291,   -16.079668,           0.
** ... 46730 like lines cut
*Element, type=S4R
 1, 30733, 30730, 30803, 30805
 2, 30805, 30803, 30731, 30734
 3, 30783, 30787, 30806, 30800
 4, 30787, 30788, 30807, 30806
 5, 30788, 30789, 30808, 30807
 6, 30789, 30785, 30804, 30808
 7, 30800, 30806, 30792, 30784
 8, 30806, 30807, 30791, 30792
 9, 30807, 30808, 30790, 30791
10, 30808, 30804, 30786, 30790
 14, 30854, 30848, 30841, 30852
 15, 30749, 30825, 30828, 30748
 16, 30755, 30864, 30869, 30754
 17, 30814, 30822, 30795, 30796
 18, 30763, 30837, 30831, 30762
 19, 30762, 30831, 30830, 30761
 20, 30815, 30812, 30738, 30739
 21, 30823, 30816, 30740, 30741
 22, 30816, 30815, 30739, 30740
 23, 30813, 30823, 30741, 30742
** ... 36470 like lines cut
*Element, type=S3
11, 30859, 30856, 30852
12, 30845, 30862, 30858
13, 30869, 30864, 30797
110, 23051, 23048, 23044
111, 23037, 23054, 23050
112, 22829, 22826, 22809
209, 26960, 26957, 26953
210, 26946, 26963, 26959
211, 26721, 26965, 26857
308, 19196, 19193, 19190
309, 19184, 19199, 19195
310, 18998, 18995, 18966
407, 7531, 7528, 7524
408, 7517, 7534, 7530
409, 7541, 7536, 7466
506, 11358, 11355, 11351
507, 11344, 11361, 11357
508, 11368, 11363, 11294
605, 15153, 15151, 15147
606, 15143, 15156, 15152
** ... 1188 like lines cut
*Elset, elset=SET-1, generate
     1,  37698,      1
*Elset, elset=_I1, internal
     1,     2,     3,     4,     5,     6,     7,     8,     9,    10,    14,    15,    16,    17,    18,    19
    20,    21,    22,    23,    24,    25,    26,    27,    28,    29,    30,    31,    32,    33,    34,    35
    36,    37,    38,    39,    40,    41,    42,    43,    44,    45,    46,    47,    48,    49,    50,    51
    52,    53,    54,    55,    56,    57,    58,    59,    60,    61,    62,    63,    64,    65,    66,    67
    68,    69,    70,    71,    72,    73,    74,    75,    76,    77,    78,    79,    80,    81,    82,    83
    84,    85,    86,    87,    88,    89,    90,    91,    92,    93,    94,    95,    96,    97,    98,    99
   100,   101,   102,   103,   104,   105,   106,   107,   108,   109,   113,   114,   115,   116,   117,   118
   119,   120,   121,   122,   123,   124,   125,   126,   127,   128,   129,   130,   131,   132,   133,   134
   135,   136,   137,   138,   139,   140,   141,   142,   143,   144,   145,   146,   147,   148,   149,   150
   151,   152,   153,   154,   155,   156,   157,   158,   159,   160,   161,   162,   163,   164,   165,   166
   167,   168,   169,   170,   171,   172,   173,   174,   175,   176,   177,   178,   179,   180,   181,   182
   183,   184,   185,   186,   187,   188,   189,   190,   191,   192,   193,   194,   195,   196,   197,   198
   199,   200,   201,   202,   203,   204,   205,   206,   207,   208,   212,   213,   214,   215,   216,   217
   218,   219,   220,   221,   222,   223,   224,   225,   226,   227,   228,   229,   230,   231,   232,   233
   234,   235,   236,   237,   238,   239,   240,   241,   242,   243,   244,   245,   246,   247,   248,   249
   250,   251,   252,   253,   254,   255,   256,   257,   258,   259,   260,   261,   262,   263,   264,   265
   266,   267,   268,   269,   270,   271,   272,   273,   274,   275,   276,   277,   278,   279,   280,   281
   282,   283,   284,   285,   286,   287,   288,   289,   290,   291,   292,   293,   294,   295,   296,   297
   298,   299,   300,   301,   302,   303,   304,   305,   306,   307,   311,   312,   313,   314,   315,   316
   317,   318,   319,   320,   321,   322,   323,   324,   325,   326,   327,   328,   329,   330,   331,   332
** ... 2261 like lines cut
*Elset, elset=_I2, internal
    11,    12,    13,   110,   111,   112,   209,   210,   211,   308,   309,   310,   407,   408,   409,   506
   507,   508,   605,   606,   607,   698,   699,   700,   791,   800,   801,   802,   893,   906,   907,   908
   998,   999,  1030,  1114,  1220,  1221,  1222,  1305,  1306,  1307,  1413,  1414,  1524,  1533,  1573,  1574
  1575,  1665,  1666,  1697,  1781,  1887,  1888,  1889,  1972,  1973,  1974,  2080,  2081,  2191,  2200,  2240
  2241,  2242,  2341,  2342,  2343,  2426,  2443,  2533,  2534,  2535,  2626,  2645,  2646,  2647,  2746,  2747
  2748,  2831,  2848,  2849,  2850,  2949,  2950,  2951,  3034,  3051,  3052,  3053,  3152,  3153,  3154,  3237
  3254,  3255,  3256,  3355,  3356,  3357,  3440,  3457,  3458,  3459,  3558,  3559,  3560,  3643,  3660,  3661
  3662,  3761,  3762,  3763,  3846,  3863,  3864,  3865,  3964,  3965,  3966,  4049,  4066,  4067,  4068,  4167
  4168,  4169,  4252,  4269,  4270,  4271,  4370,  4371,  4372,  4455,  4472,  4473,  4474,  4573,  4574,  4575
  4658,  4675,  4676,  4677,  4776,  4777,  4778,  4861,  4878,  4879,  4880,  4979,  4980,  4981,  5064,  5081
  5082,  5083,  5182,  5183,  5184,  5267,  5284,  5285,  5286,  5385,  5386,  5387,  5470,  5487,  5488,  5489
  5588,  5589,  5590,  5673,  5690,  5691,  5692,  5791,  5792,  5793,  5876,  5893,  5894,  5895,  5994,  5995
  5996,  6079,  6096,  6097,  6098,  6197,  6198,  6199,  6282,  6299,  6300,  6301,  6400,  6401,  6402,  6485
  6502,  6503,  6504,  6603,  6604,  6605,  6688,  6705,  6706,  6707,  6806,  6807,  6808,  6891,  6908,  6909
  6910,  7009,  7010,  7011,  7094,  7111,  7112,  7113,  7212,  7213,  7214,  7297,  7314,  7315,  7316,  7415
  7416,  7417,  7500,  7517,  7607,  7608,  7609,  7700,  7719,  7809,  7810,  7811,  7902,  7921,  8011,  8012
  8013,  8104,  8125,  8126,  8127,  8224,  8225,  8226,  8321,  8322,  8323,  8422,  8423,  8424,  8507,  8524
  8525,  8526,  8625,  8626,  8627,  8710,  8727,  8728,  8729,  8828,  8829,  8830,  8913,  8930,  8931,  8932
  9031,  9032,  9033,  9116,  9133,  9134,  9135,  9234,  9235,  9236,  9319,  9336,  9337,  9338,  9437,  9438
  9439,  9522,  9539,  9540,  9541,  9640,  9641,  9642,  9725,  9742,  9832,  9833,  9834,  9925,  9944, 10034
** ... 56 like lines cut
** Section: Section-1-_I1
*Shell Section, elset=_I1, material=MATERIAL-1, controls=EC-1
0.1, 5
** Section: Section-2-_I2
*Shell Section, elset=_I2, material=MATERIAL-1
0.1, 5
*End Part
**  
**
** ASSEMBLY
**
*Assembly, name=Assembly
**  
*Instance, name=PART-8-1, part=PART-8
*End Instance
**  
*Nset, nset=SET-1, instance=PART-8-1
  3483,  3484,  3485,  3488,  3489,  7289,  7290,  7291,  7293,  7294, 11122, 11123, 11124, 11127, 11128, 14952
 14961, 14962, 14964, 14965, 18917, 18918, 18919, 18921, 18922, 22745, 22746, 22747, 22750, 22751, 26640, 26641
 26642, 26645, 26646, 30564, 30565, 30566, 30569, 30570, 34486, 34487, 34488, 34491, 34492, 39270, 39271, 39272
 39274, 39278, 43103, 43104, 43106, 43117, 46701, 46702, 46705, 46706
*Nset, nset=SET-2, instance=PART-8-1
    25,    26,    27,    28,    40,   123,   125,  3633,  3634,  3635,  3636,  3637,  3679,  3681,  7399,  7400
  7402,  7403,  7415,  7475,  7477, 11235, 11236, 11238, 11239, 11251, 11302, 11304, 15263, 15264, 15266, 15267
 15268, 15304, 15305, 19112, 19113, 19115, 19116, 19122, 19160, 19161, 22951, 22952, 22954, 22955, 22965, 23003
 23004, 26858, 26859, 26861, 26862, 26872, 26908, 26909, 30730, 30731, 30733, 30734, 30746, 30803, 30805, 34598
 34605, 34606, 34607, 34619, 39377, 39378, 39380, 39381, 39382, 39383, 39384, 39461, 39463, 39464, 39465, 43200
 43201, 43203, 43204, 43205, 43206, 43207, 43286, 43288, 43289, 43290
*End Assembly
** 
** ELEMENT CONTROLS
** 
*Section Controls, name=EC-1, ELEMENT DELETION=YES, hourglass=ENHANCED
1., 1., 1.
*Amplitude, name=AMP-1
             0.,              0.,             0.5,             0.8
** 
** MATERIALS
** 
*Material, name=MATERIAL-1
*Density
 1e-06,
*Elastic
5000., 0.3
** ----------------------------------------------------------------
** 
** STEP: Step-1
** 
*Step, name=Step-1, nlgeom=YES, inc=10000
*Static
0.02, 1., 1e-09, 0.1
** 
** BOUNDARY CONDITIONS
** 
** Name: Disp-BC-1 Type: Displacement/Rotation
*Boundary, amplitude=AMP-1
SET-1, 1, 1
** Name: Disp-BC-2 Type: Displacement/Rotation
*Boundary
SET-1, 2, 2, 0.1
** Name: Disp-BC-3 Type: Displacement/Rotation
*Boundary, amplitude=AMP-1
SET-1, 3, 3
** Name: Disp-BC-4 Type: Displacement/Rotation
*Boundary, amplitude=AMP-1
SET-1, 4, 4
** Name: Disp-BC-5 Type: Displacement/Rotation
*Boundary, amplitude=AMP-1
SET-1, 5, 5
** Name: Disp-BC-6 Type: Displacement/Rotation
*Boundary, amplitude=AMP-1
SET-1, 6, 6
** Name: Disp-BC-7 Type: Displacement/Rotation
*Boundary, amplitude=AMP-1
SET-2, 1, 1
** Name: Disp-BC-8 Type: Displacement/Rotation
*Boundary
SET-2, 2, 2, -0.1
** Name: Disp-BC-9 Type: Displacement/Rotation
*Boundary, amplitude=AMP-1
SET-2, 3, 3
** Name: Disp-BC-10 Type: Displacement/Rotation
*Boundary, amplitude=AMP-1
SET-2, 4, 4
** Name: Disp-BC-11 Type: Displacement/Rotation
*Boundary, amplitude=AMP-1
SET-2, 5, 5
** Name: Disp-BC-12 Type: Displacement/Rotation
*Boundary, amplitude=AMP-1
SET-2, 6, 6
** 
** OUTPUT REQUESTS
** 
*Restart, write, number interval=1, time marks=NO
** 
** FIELD OUTPUT: F-Output-1
** 
*Output, field, variable=PRESELECT, number interval=200, time marks=NO
** 
** HISTORY OUTPUT: H-Output-1
** 
*Output, history, variable=PRESELECT, number interval=200, time marks=NO
*End Step
