*Heading
** Job name: solidcontinuum-circularhole Model name: Model-1-circle
** Generated by: Abaqus/CAE 2023
*Preprint, echo=NO, model=NO, history=NO, contact=NO
**
** PARTS
**
*Part, name=Part-1
*Node
      1,   6.44999981,           0.,           0.
      2,   4.30000019,           0.,           0.
      3,  -4.30000019,           0.,           0.
      4,  -6.44999981,           0.,           0.
      5,          2.5,           0.,           0.
      6,          35.,          25.,           0.
      7,         -35.,          25.,           0.
      8,         -35.,         -25.,           0.
      9,          35.,         -25.,           0.
     10,          35.,           0.,           0.
     11,   8.60000038,           0.,           0.
     12,  -8.60000038,           0.,           0.
     13,    5.9124999,           0.,           0.
     14,        5.375,           0.,           0.
     15,    4.8375001,           0.,           0.
     16,   4.29267168, -0.250938177,           0.
     17,   4.27069759, -0.501142025,           0.
     18,   4.23413754,  -0.74971956,           0.
     19,   4.18311262, -0.995775163,           0.
     20,   4.11780167,  -1.23843002,           0.
** ... 4892 like lines cut
*Element, type=S4R
  1,   1,  13, 614, 227
  2,  13,  14, 615, 614
  3,  14,  15, 616, 615
  4,  15,   2,  16, 616
  5, 227, 614, 617, 226
  6, 614, 615, 618, 617
  7, 615, 616, 619, 618
  8, 616,  16,  17, 619
  9, 226, 617, 620, 225
 10, 617, 618, 621, 620
 11, 618, 619, 622, 621
 12, 619,  17,  18, 622
 13, 225, 620, 623, 224
 14, 620, 621, 624, 623
 15, 621, 622, 625, 624
 16, 622,  18,  19, 625
 17, 224, 623, 626, 223
 18, 623, 624, 627, 626
 19, 624, 625, 628, 627
 20, 625,  19,  20, 628
** ... 4778 like lines cut
*Nset, nset=Set-1, generate
    1,  4912,     1
*Elset, elset=Set-1, generate
    1,  4798,     1
** Section: Section-1
*Shell Section, elset=Set-1, material=Material-1
1., 5
*End Part
**  
**
** ASSEMBLY
**
*Assembly, name=Assembly
**  
*Instance, name=Part-1-1, part=Part-1
*End Instance
**  
*Nset, nset=Set-1, instance=Part-1-1
   8,   9, 396, 397, 398, 399, 400, 401, 402, 403, 404, 405, 406, 407, 408, 409
 410, 411, 412, 413, 414, 415, 416, 417, 418, 419, 420, 421, 422, 423, 424, 425
 426, 427, 428
*Nset, nset=Set-2, instance=Part-1-1
   6,   7, 338, 339, 340, 341, 342, 343, 344, 345, 346, 347, 348, 349, 350, 351
 352, 353, 354, 355, 356, 357, 358, 359, 360, 361, 362, 363, 364, 365, 366, 367
 368, 369, 370
*End Assembly
** 
** MATERIALS
** 
*Material, name=Material-1
*Elastic
3000., 0.4
** 
** BOUNDARY CONDITIONS
** 
** Name: BC-1 Type: Symmetry/Antisymmetry/Encastre
*Boundary
Set-1, ENCASTRE
** ----------------------------------------------------------------
** 
** STEP: Step-1
** 
*Step, name=Step-1, nlgeom=YES
*Static
0.1, 1., 1e-10, 0.2
** 
** BOUNDARY CONDITIONS
** 
** Name: BC-2 Type: Displacement/Rotation
*Boundary
Set-2, 1, 1
Set-2, 2, 2, 1.
Set-2, 3, 3
Set-2, 4, 4
Set-2, 5, 5
Set-2, 6, 6
** 
** OUTPUT REQUESTS
** 
*Restart, write, frequency=0
** 
** FIELD OUTPUT: F-Output-1
** 
*Output, field, variable=PRESELECT
** 
** HISTORY OUTPUT: H-Output-1
** 
*Output, history, variable=PRESELECT
*End Step
