*Heading
** Job name: solidcontinuum-elliptical Model name: Model-1-elliptical
** Generated by: Abaqus/CAE 2023
*Preprint, echo=NO, model=NO, history=NO, contact=NO
**
** PARTS
**
*Part, name=Part-1
*Node
      1,          35.,          25.,           0.
      2,         -35.,          25.,           0.
      3,         -35.,         -25.,           0.
      4,          35.,         -25.,           0.
      5,          35.,           0.,           0.
      6,          15.,           0.,           0.
      7,         -15.,           0.,           0.
      8,          10.,           0.,           0.
      9,         -10.,           0.,           0.
     10,           5.,           0.,           0.
     11,   32.9411774,          25.,           0.
     12,   30.8823528,          25.,           0.
     13,   28.8235302,          25.,           0.
     14,   26.7647057,          25.,           0.
     15,    24.705883,          25.,           0.
     16,   22.6470585,          25.,           0.
     17,   20.5882359,          25.,           0.
     18,   18.5294113,          25.,           0.
     19,   16.4705887,          25.,           0.
     20,   14.4117651,          25.,           0.
** ... 10577 like lines cut
*Element, type=S4R
   1,  430,  431,  703, 5555
   2, 5695,  745,  722, 5705
   3,  722, 5865, 5943, 5705
   4,  721, 5888, 5779,  744
   5, 5781,  743, 5779,  720
   6, 5576, 5706,  719, 5681
   7,  741, 5787,  740, 5724
   8,  716, 5581, 5711,  739
   9, 5664, 5600, 5747,  714
  10,  714,  713, 5512, 5664
  11, 5544, 5425, 5778, 5675
  12, 5776, 5642, 5972, 5515
  13, 5629, 5542,  734, 5642
  14,  733, 5625, 5534, 5927
  15, 5809, 5743, 5625,  711
  16, 5913, 5655,  730, 5616
  17, 5801, 5751,  710, 5690
  18, 5601, 5925, 5825, 5611
  19, 5678, 5757,  707,  727
  20,  727, 5784, 5725, 5635
** ... 10477 like lines cut
*Nset, nset=Set-1, generate
     1,  10597,      1
*Elset, elset=Set-1, generate
     1,  10497,      1
** Section: Section-1
*Shell Section, elset=Set-1, material=Material-1
1., 5
*End Part
**  
**
** ASSEMBLY
**
*Assembly, name=Assembly
**  
*Instance, name=Part-1-1, part=Part-1
*End Instance
**  
*Nset, nset=Set-1, instance=Part-1-1
   3,   4,  69,  70,  71,  72,  73,  74,  75,  76,  77,  78,  79,  80,  81,  82
  83,  84,  85,  86,  87,  88,  89,  90,  91,  92,  93,  94,  95,  96,  97,  98
  99, 100, 101
*Nset, nset=Set-2, instance=Part-1-1
  1,  2, 11, 12, 13, 14, 15, 16, 17, 18, 19, 20, 21, 22, 23, 24
 25, 26, 27, 28, 29, 30, 31, 32, 33, 34, 35, 36, 37, 38, 39, 40
 41, 42, 43
*End Assembly
** 
** MATERIALS
** 
*Material, name=Material-1
*Elastic
3000., 0.4
** 
** BOUNDARY CONDITIONS
** 
** Name: BC-1 Type: Symmetry/Antisymmetry/Encastre
*Boundary
Set-1, ENCASTRE
** ----------------------------------------------------------------
** 
** STEP: Step-1
** 
*Step, name=Step-1, nlgeom=YES
*Static
0.1, 1., 1e-10, 0.2
** 
** BOUNDARY CONDITIONS
** 
** Name: BC-2 Type: Displacement/Rotation
*Boundary
Set-2, 1, 1
Set-2, 2, 2, 1.
Set-2, 3, 3
Set-2, 4, 4
Set-2, 5, 5
Set-2, 6, 6
** 
** OUTPUT REQUESTS
** 
*Restart, write, frequency=0
** 
** FIELD OUTPUT: F-Output-1
** 
*Output, field, variable=PRESELECT
** 
** HISTORY OUTPUT: H-Output-1
** 
*Output, history, variable=PRESELECT
*End Step
