*Heading
** Job name: modifiedgeometry_1 Model name: modified_file
** Generated by: Abaqus/CAE 2023
*Preprint, echo=NO, model=NO, history=NO, contact=NO
**
** PARTS
**
*Part, name=POLARIZATION0WALL-MIDDLEWHOLE
*Node
      1,    98.528801,   81.9419937,           0.
      2,   98.9128647,   81.4024582,           0.
      3,   100.066849,   81.9745407,           0.
      4,   99.5997162,   82.6185226,           0.
      5,   99.5997162,   89.1122589,           0.
      6,   100.066849,   89.7562332,           0.
      7,   98.9128647,   90.3283157,           0.
      8,    98.528801,   89.7887878,           0.
      9,   95.0991364,   81.1039124,           0.
     10,   92.6570663,   81.6677322,           0.
     11,   88.6136627,   85.0287704,           0.
     12,   87.5772476,   85.0287704,           0.
     13,   87.5337677,   83.8044586,           0.
     14,    86.017334,   81.9419937,           0.
     15,   82.5875473,   81.1039124,           0.
     16,   80.1455994,   81.6677322,           0.
     17,   76.1020737,   85.0287704,           0.
     18,   75.0657806,   85.0287704,           0.
     19,   75.0222931,   83.8044586,           0.
     20,   73.5057449,   81.9419937,           0.
** ... 15918 like lines cut
*Element, type=S4R
    1,     1,  2521,  9706,  2526
    2,  2521,     2,  2522,  9706
    3,  2526,  9706,  9707,  2525
    4,  9706,  2522,  2523,  9707
    5,  2525,  9707,  2524,     4
    6,  9707,  2523,     3,  2524
    7,     5,  2527,  9708,  2532
    8,  2527,     6,  2528,  9708
    9,  2532,  9708,  9709,  2531
   10,  9708,  2528,  2529,  9709
   11,  2531,  9709,  2530,     8
   12,  9709,  2529,     7,  2530
   13, 10318,  2961,     2,  2521
   14,  2961, 10318, 10854,  2960
   15, 12133,  9760, 12672, 10886
   16, 12107, 13517,  2956,  2957
   17,  2958, 12133, 12107,  2957
   18, 14017, 10886,     9,  2537
   19, 14017, 12874, 13049, 10886
   20, 14016, 14017,  2537,  2538
** ... 11269 like lines cut
*Nset, nset=SET-1, generate
     1,  15938,      1
*Elset, elset=SET-1, generate
     1,  11289,      1
** Section: Section-1-SET-1
*Shell Section, elset=SET-1, material=PAPER, controls=EC-1
0.26, 5
*End Part
**  
**
** ASSEMBLY
**
*Assembly, name=Assembly
**  
*Instance, name=POLARIZATION0WALL-MIDDLEWHOLE-1, part=POLARIZATION0WALL-MIDDLEWHOLE
  -417.56023,   596.400853,           0.
*End Instance
**  
*Node
      2,          18.,           5.,           0.
      1,          18.,           5.,           0.
*Nset, nset=M_SET-8
 2,
*Nset, nset=SET-11, instance=POLARIZATION0WALL-MIDDLEWHOLE-1
 396, 397, 402, 403, 408, 409, 414, 415, 420, 421, 426, 427, 432, 433, 438, 439
 444, 445, 450, 451, 456, 457, 462, 463
*Nset, nset=SET-13, instance=POLARIZATION0WALL-MIDDLEWHOLE-1
 249, 250, 255, 256, 261, 262, 267, 268, 273, 274, 279, 280, 285, 286, 291, 292
 297, 298, 303, 304, 309, 310, 315, 316
*Nset, nset=SET-13_CNS_, internal, instance=POLARIZATION0WALL-MIDDLEWHOLE-1
 249, 250, 255, 256, 261, 262, 267, 268, 273, 274, 279, 280, 285, 286, 291, 292
 297, 298, 303, 304, 309, 310, 315, 316
*Nset, nset=SET-13_CNS__CNS_, internal, instance=POLARIZATION0WALL-MIDDLEWHOLE-1
 249, 250, 255, 256, 261, 262, 267, 268, 273, 274, 279, 280, 285, 286, 291, 292
 297, 298, 303, 304, 309, 310, 315, 316
*Nset, nset=SET-13_CNS__CNS__CNS_, internal, instance=POLARIZATION0WALL-MIDDLEWHOLE-1
 249, 250, 255, 256, 261, 262, 267, 268, 273, 274, 279, 280, 285, 286, 291, 292
 297, 298, 303, 304, 309, 310, 315, 316
*Surface, type=NODE, name=SET-13_CNS__CNS__CNS__CNS_, internal
SET-13_CNS__CNS__CNS_, 1.
** Constraint: CONSTRAINT-1
*Coupling, constraint name=CONSTRAINT-1, ref node=M_SET-8, surface=SET-13_CNS__CNS__CNS__CNS_
*Kinematic
*End Assembly
** 
** ELEMENT CONTROLS
** 
*Section Controls, name=EC-1, ELEMENT DELETION=YES, MAX DEGRADATION=0.95, hourglass=RELAX STIFFNESS
1., 1., 1.
*Amplitude, name=AMP-1
             0.,              0.,              1.,              3.
** 
** MATERIALS
** 
*Material, name=PAPER
*Damage Initiation, criterion=DUCTILE
 0.04,0.,0.
*Damage Evolution, type=DISPLACEMENT, softening=TABULAR
0.,  0.
1., 0.1
*Density
 8e-08,
*Elastic
7000., 0.3
*Plastic
     55.,         0.
  57.765, 0.00171865
    59.9,  0.0042966
    62.5,  0.0081635
     65.,   0.013964
     67.,  0.0226645
     69.,  0.0357155
 71.0314,    0.05529
** 
** BOUNDARY CONDITIONS
** 
** Name: Disp-BC-1 Type: Displacement/Rotation
*Boundary
SET-11, 1, 1
** Name: Disp-BC-2 Type: Displacement/Rotation
*Boundary
SET-11, 2, 2
** Name: Disp-BC-3 Type: Displacement/Rotation
*Boundary
SET-11, 3, 3
** Name: Disp-BC-4 Type: Displacement/Rotation
*Boundary
SET-11, 4, 4
** Name: Disp-BC-5 Type: Displacement/Rotation
*Boundary
SET-11, 5, 5
** Name: Disp-BC-6 Type: Displacement/Rotation
*Boundary
SET-11, 6, 6
** Name: Disp-BC-7 Type: Displacement/Rotation
*Boundary
SET-13, 2, 2
** Name: Disp-BC-8 Type: Displacement/Rotation
*Boundary
SET-13, 4, 4
** Name: Disp-BC-9 Type: Displacement/Rotation
*Boundary
SET-13, 5, 5
** Name: Disp-BC-10 Type: Displacement/Rotation
*Boundary
SET-13, 6, 6
** Name: Disp-BC-11 Type: Displacement/Rotation
*Boundary
SET-13, 3, 3
** ----------------------------------------------------------------
** 
** STEP: Step-1
** 
*Step, name=Step-1, nlgeom=YES
*Dynamic, Explicit
, 1.
*Bulk Viscosity
0.06, 1.2
** 
** BOUNDARY CONDITIONS
** 
** Name: Disp-BC-1 Type: Displacement/Rotation
*Boundary, op=NEW
** Name: Disp-BC-2 Type: Displacement/Rotation
*Boundary, op=NEW
** Name: Disp-BC-3 Type: Displacement/Rotation
*Boundary, op=NEW
** Name: Disp-BC-4 Type: Displacement/Rotation
*Boundary, op=NEW
** Name: Disp-BC-5 Type: Displacement/Rotation
*Boundary, op=NEW
** Name: Disp-BC-6 Type: Displacement/Rotation
*Boundary, op=NEW
** Name: Disp-BC-7 Type: Displacement/Rotation
*Boundary, op=NEW
** Name: Disp-BC-8 Type: Displacement/Rotation
*Boundary, op=NEW
** Name: Disp-BC-9 Type: Displacement/Rotation
*Boundary, op=NEW
** Name: Disp-BC-10 Type: Displacement/Rotation
*Boundary, op=NEW
** Name: Disp-BC-11 Type: Displacement/Rotation
*Boundary, op=NEW
** Name: Disp-BC-12 Type: Displacement/Rotation
*Boundary, op=NEW
SET-11, 1, 1
** Name: Disp-BC-13 Type: Displacement/Rotation
*Boundary, op=NEW, amplitude=AMP-1
SET-11, 2, 2, -2.
** Name: Disp-BC-14 Type: Displacement/Rotation
*Boundary, op=NEW
SET-11, 3, 3
** Name: Disp-BC-15 Type: Displacement/Rotation
*Boundary, op=NEW
SET-11, 4, 4
** Name: Disp-BC-16 Type: Displacement/Rotation
*Boundary, op=NEW
SET-11, 5, 5
** Name: Disp-BC-17 Type: Displacement/Rotation
*Boundary, op=NEW
SET-11, 6, 6
** Name: Disp-BC-18 Type: Displacement/Rotation
*Boundary, op=NEW, amplitude=AMP-1
SET-13, 1, 1
** Name: Disp-BC-19 Type: Displacement/Rotation
*Boundary, op=NEW, amplitude=AMP-1
SET-13, 2, 2, 2.
** Name: Disp-BC-20 Type: Displacement/Rotation
*Boundary, op=NEW, amplitude=AMP-1
SET-13, 3, 3
** Name: Disp-BC-21 Type: Displacement/Rotation
*Boundary, op=NEW, amplitude=AMP-1
SET-13, 4, 4
** Name: Disp-BC-22 Type: Displacement/Rotation
*Boundary, op=NEW, amplitude=AMP-1
SET-13, 5, 5
** Name: Disp-BC-23 Type: Displacement/Rotation
*Boundary, op=NEW, amplitude=AMP-1
SET-13, 6, 6
** 
** OUTPUT REQUESTS
** 
*Restart, write, number interval=1, time marks=NO
** 
** FIELD OUTPUT: F-Output-1
** 
*Output, field
*Node Output, nset=SET-11
RF, 
** 
** FIELD OUTPUT: F-Output-2
** 
*Output, field, number interval=300
*Node Output, exterior
A, U, V
** 
** FIELD OUTPUT: F-Output-3
** 
*Element Output, exterior, directions=YES
DMICRT, LE, PE, PEEQ, PEEQVAVG, PEVAVG, S, STATUS, SVAVG
** 
** HISTORY OUTPUT: H-Output-1
** 
*Output, history, time interval=0.0002
*Node Output, nset=M_SET-8
RT, 
** 
** HISTORY OUTPUT: H-Output-2
** 
*Node Output, nset=SET-11
RT, 
** 
** HISTORY OUTPUT: H-Output-3
** 
*Node Output, nset=SET-13
RT, 
*End Step
