*Heading
** Job name: Fig1-topologicalkagome Model name: Fig1-topologicalkagome
** Generated by: Abaqus/CAE 2023
*Preprint, echo=NO, model=NO, history=NO, contact=NO
**
** PARTS
**
*Part, name=PART-6
*Node
      1,  -1.54431129,  -4.61621809,           0.
      2,  -1.50793433,  -4.66657972,           0.
      3,  -1.39648414,   -4.4933238,           0.
      4,  -1.48889136,  -4.57013655,           0.
      5,  -1.52355933,  -4.59893751,           0.
      6,  -1.52612281,  -4.64140272,           0.
      7,  -1.48071265,  -4.65991926,           0.
      8,  -1.43518043,  -4.64881849,           0.
      9,  -1.31408668,  -4.61920881,           0.
     10,  -1.12011695,  -4.57184553,           0.
     11, -0.926269352,  -4.52447462,           0.
     12, -0.732421696,  -4.47710371,           0.
     13,  -0.53845197,  -4.42974043,           0.
     14,   1.35827661,  -5.50614119,           0.
     15,    1.4697268,  -5.50614119,           0.
     16,   1.49548364,  -4.77989912,           0.
     17,     1.424927,  -4.68219709,           0.
     18,    1.5992434,  -4.61621809,           0.
     19,   1.41406274,  -5.50614119,           0.
     20,   1.47619653,  -5.32458448,           0.
** ... 36175 like lines cut
*Element, type=S4R
    1,    97,    91, 21007, 21016
    2, 21018, 21023, 21019, 21016
    3, 21007,    91, 20944, 21010
    4, 21017,   132, 21020, 21011
    5,   127, 20945, 21017,   131
    6,   128,   132, 21017, 20945
    7, 21020, 21018, 21010, 21011
    8, 21023, 21015, 21013,    12
    9,    13, 21019, 21023,    12
   10, 21013, 21014,    11,    12
   11, 21014, 21009,    10,    11
   12, 21006, 21008,     4,     5
   13,     8, 21008, 21006,     7
   14, 21006,     6,     2,     7
   15,     5,     1,     6, 21006
   16,     9, 21021, 21008,     8
   17,     3, 21021, 21009,    96
   18,    96, 21009, 21014,    95
   19,    95, 21014, 21013,    94
   20,    94, 21013, 21015,   135
** ... 25988 like lines cut
*Nset, nset=SET-1
     1,     2,     3,     4,     5,     6,     7,     8,     9,    10,    11,    12,    13,    14,    15,    16
    17,    18,    19,    20,    21,    22,    23,    24,    25,    26,    27,    28,    29,    30,    31,    32
    33,    34,    35,    36,    37,    38,    39,    40,    41,    42,    43,    44,    45,    46,    47,    48
    49,    50,    51,    52,    53,    54,    55,    56,    57,    58,    59,    60,    61,    62,    63,    64
    65,    66,    67,    68,    69,    70,    71,    72,    73,    74,    75,    76,    77,    78,    79,    80
    81,    82,    83,    84,    85,    86,    87,    88,    89,    90,    91,    92,    93,    94,    95,    96
    97,    98,    99,   100,   101,   102,   103,   104,   105,   106,   107,   108,   109,   110,   111,   112
   113,   114,   115,   116,   117,   118,   119,   120,   121,   122,   123,   124,   125,   126,   127,   128
   129,   130,   131,   132,   133,   134,   135,   136,   137,   138,   139,   140,   141,   142,   143,   144
   145,   146,   147,   148,   149,   150,   151,   152,   153,   154,   155,   156,   157,   158,   159,   160
   161,   162,   163,   164,   165,   166,   167,   168,   169,   170,   171,   172,   173,   174,   175,   176
   177,   178,   179,   180,   181,   182,   183,   184,   185,   186,   187,   188,   189,   190,   191,   192
   193,   194,   195,   196,   197,   198,   199,   200,   201,   202,   203,   204,   205,   206,   207,   208
   209,   210,   211,   212,   213,   214,   215,   216,   217,   218,   219,   220,   221,   222,   223,   224
   225,   226,   227,   228,   229,   230,   231,   232,   233,   234,   235,   236,   237,   238,   239,   240
   241,   242,   243,   244,   245,   246,   247,   248,   249,   250,   251,   252,   253,   254,   255,   256
   257,   258,   259,   260,   261,   262,   263,   264,   265,   266,   267,   268,   269,   270,   271,   272
   273,   274,   275,   276,   277,   278,   279,   280,   281,   282,   283,   284,   285,   286,   287,   288
   289,   290,   291,   292,   293,   294,   295,   296,   297,   298,   299,   300,   301,   302,   303,   304
   305,   306,   307,   308,   309,   310,   311,   312,   313,   314,   315,   316,   317,   318,   319,   320
** ... 2243 like lines cut
*Elset, elset=SET-1
     1,     2,     3,     4,     5,     6,     7,     8,     9,    10,    11,    12,    13,    14,    15,    16
    17,    18,    19,    20,    21,    22,    23,    24,    25,    26,    27,    28,    29,    30,    31,    32
    33,    34,    35,    36,    37,    38,    39,    40,    41,    42,    43,    44,    45,    46,    47,    48
    49,    50,    51,    52,    53,    54,    55,    56,    57,    58,    59,    60,    61,    62,    63,    64
    65,    66,    67,    68,    69,    70,    71,    72,    73,    74,    75,    76,    77,    78,    79,    80
    81,    82,    83,    84,    85,    86,    87,    88,    89,    90,    91,    92,    93,    94,    95,    96
    97,    98,    99,   100,   101,   102,   103,   104,   105,   106,   107,   108,   109,   110,   111,   112
   113,   114,   115,   116,   117,   118,   119,   120,   121,   122,   123,   124,   125,   126,   127,   128
   129,   130,   131,   132,   133,   134,   135,   136,   137,   138,   139,   140,   141,   142,   143,   144
   145,   146,   147,   148,   149,   150,   151,   152,   153,   154,   155,   156,   157,   158,   159,   160
   161,   162,   163,   164,   165,   166,   167,   168,   169,   170,   171,   172,   173,   174,   175,   176
   177,   178,   179,   180,   181,   182,   183,   184,   185,   186,   187,   188,   189,   190,   191,   192
   193,   194,   195,   196,   197,   198,   199,   200,   201,   202,   203,   204,   205,   206,   207,   208
   209,   210,   211,   212,   213,   214,   215,   216,   217,   218,   219,   220,   221,   222,   223,   224
   225,   226,   227,   228,   229,   230,   231,   232,   233,   234,   235,   236,   237,   238,   239,   240
   241,   242,   243,   244,   245,   246,   247,   248,   249,   250,   251,   252,   253,   254,   255,   256
   257,   258,   259,   260,   261,   262,   263,   264,   265,   266,   267,   268,   269,   270,   271,   272
   273,   274,   275,   276,   277,   278,   279,   280,   281,   282,   283,   284,   285,   286,   287,   288
   289,   290,   291,   292,   293,   294,   295,   296,   297,   298,   299,   300,   301,   302,   303,   304
   305,   306,   307,   308,   309,   310,   311,   312,   313,   314,   315,   316,   317,   318,   319,   320
** ... 1606 like lines cut
** Section: Section-1-SET-1
*Shell Section, elset=SET-1, material=MATERIAL-1
0.1, 5
*End Part
**  
**
** ASSEMBLY
**
*Assembly, name=Assembly
**  
*Instance, name=PART-6-1, part=PART-6
*End Instance
**  
*Nset, nset=BOTTOM, instance=PART-6-1
    14,    15,    19,    54,    55,    59,  1888,  1889,  1893,  1963,  1964,  1968,  3709,  3710,  3714,  3749
  3750,  3754,  5749,  5750,  5754,  5787,  5788,  5792,  7561,  7562,  7566,  7594,  7595,  7599,  9385,  9386
  9390,  9411,  9412,  9416,  9488,  9489,  9493, 11435, 11436, 11440, 11475, 11480, 13244, 13245, 13249, 13284
 13285, 13289, 15139, 15140, 15144, 15193, 15194, 15198, 17107, 17108, 17112, 17142, 17143, 17147, 18919, 18920
 18924, 18948, 18949, 18953, 18988, 18989, 18994
*Nset, nset=SET-1, instance=PART-6-1
 1806,
*Nset, nset=SET-2, instance=PART-6-1
 20901,
*Nset, nset=SET-3, instance=PART-6-1
 1808,
*Nset, nset=SET-4, instance=PART-6-1
 20916,
*Nset, nset=SET-5, instance=PART-6-1
 1807,
*Nset, nset=SET-6, instance=PART-6-1
 20900,
*Nset, nset=SET-7, instance=PART-6-1
 1567,
*Nset, nset=SET-8, instance=PART-6-1
 20659,
*Nset, nset=SET-9, instance=PART-6-1
 1572,
*Nset, nset=SET-10, instance=PART-6-1
 20684,
*Nset, nset=SET-11, instance=PART-6-1
 1568,
*Nset, nset=SET-12, instance=PART-6-1
 20660,
*Nset, nset=SET-13, instance=PART-6-1
 1494,
*Nset, nset=SET-14, instance=PART-6-1
 1496,
*Nset, nset=SET-15, instance=PART-6-1
 1495,
*Nset, nset=SET-16, instance=PART-6-1
 1259,
*Nset, nset=SET-17, instance=PART-6-1
 1264,
*Nset, nset=SET-18, instance=PART-6-1
 1260,
*Nset, nset=SET-19, instance=PART-6-1
 20541,
*Nset, nset=SET-20, instance=PART-6-1
** ... 107 like lines cut
*Nset, nset=TOP, instance=PART-6-1
  1835,  1836,  1837,  1871,  1872,  1873,  3600,  3601,  3602,  3695,  3696,  3697,  5658,  5659,  5660,  5693
  5694,  5695,  7508,  7509,  7510,  7544,  7545,  7546,  9233,  9234,  9235,  9363,  9364,  9365, 11296, 11297
 11298, 11331, 11332, 11333, 11417, 11418, 11419, 13184, 13185, 13186, 13220, 13221, 13222, 15089, 15090, 15091
 15126, 15127, 15128, 16964, 16965, 16966, 17091, 17092, 17093, 18817, 18818, 18819, 18853, 18854, 18855, 20846
 20847, 20848, 20883, 20884, 20885, 20920, 20921, 20922
*End Assembly
** 
** MATERIALS
** 
*Material, name=MATERIAL-1
*Density
1.,
*Elastic
4000., 0.3
** ----------------------------------------------------------------
** 
** STEP: Step-1
** 
*Step, name=Step-1, nlgeom=YES, inc=10000
*Static
0.001, 1., 1e-20, 0.01
** 
** BOUNDARY CONDITIONS
** 
** Name: Disp-BC-1 Type: Displacement/Rotation
*Boundary
SET-75, 1, 1
** Name: Disp-BC-2 Type: Displacement/Rotation
*Boundary
BOTTOM, 2, 2, -1e-06
** Name: Disp-BC-3 Type: Displacement/Rotation
*Boundary
TOP, 2, 2, 1e-06
** 
** OUTPUT REQUESTS
** 
*Restart, write, frequency=0
** 
** FIELD OUTPUT: F-Output-1
** 
*Output, field, variable=PRESELECT
** 
** HISTORY OUTPUT: H-Output-1
** 
*Output, history, variable=PRESELECT
*End Step
