*Heading
** Job name: Fig2-NNN-PBC-stretch Model name: Stretchanalysis-NN0-fig3-2-PBC
** Generated by: Abaqus/CAE 2023
*Preprint, echo=NO, model=NO, history=NO, contact=NO
**
** PARTS
**
*Part, name=PART-4
*Node
      1,   15.6018715,   3.58373594,           0.
      2,   10.8864717,   3.19973588,           0.
      3,   9.31467152,   3.58373594,           0.
      4,    12.458272,   3.58373594,           0.
      5,   6.17107201,   3.58373594,           0.
      6,   14.0300722,   3.19973588,           0.
      7,   7.74287176,   3.19973588,           0.
      8,   4.59927177,   3.19973588,           0.
      9,   10.8546715,   2.30373597,           0.
     10,   13.9982719,   2.30373597,           0.
     11,    12.458272,   1.02373576,           0.
     12,   15.6018715,   1.02373576,           0.
     13,   15.6018715, -0.768264055,           0.
     14,   10.8864717,   1.40773606,           0.
     15,   10.8864717,  -1.15226412,           0.
     16,   9.31467152, -0.768264055,           0.
     17,   9.31467152,   1.02373576,           0.
     18,   12.4264717,  0.127735853,           0.
     19,   14.0300722,   1.40773606,           0.
     20,    12.458272, -0.768264055,           0.
** ... 1252 like lines cut
*Element, type=T3D2
   1,  597,  645
   2,  645,  646
   3,  646,  647
   4,  598,  647
   5,  598,  652
   6,  647,  652
   7,  647,  599
   8,  598,  599
   9,  598,  612
  10,  599,  612
  11,  600,  599
  12,  601,  600
  13,  601,  588
  14,  588,  556
  15,  557,  556
  16,  557,  543
  17,  581,  543
  18,  581,  556
  19,  597,  646
  20,  645,  602
** ... 2858 like lines cut
*Nset, nset=WIRE-1-SET-1
   8,  30,  46,  52,  69,  77,  89, 100, 112, 118, 135, 150, 158, 173
*Elset, elset=WIRE-1-SET-1, generate
 2966,  2972,     1
*Nset, nset=SET-8
   8,  30,  46,  52,  69,  77,  89, 100, 112, 118, 135, 150, 158, 173
*Elset, elset=SET-8, generate
 2966,  2972,     1
*Nset, nset=ORIGINAL, generate
    1,  1272,     1
*Elset, elset=ORIGINAL
    1,    2,    3,    4,    5,    6,    8,    9,   10,   11,   12,   13,   15,   16,   18,   19
   21,   23,   24,   25,   27,   28,   29,   30,   31,   32,   34,   35,   36,   38,   39,   42
   44,   46,   47,   49,   50,   51,   53,   55,   56,   57,   58,   60,   61,   62,   63,   65
   66,   67,   68,   69,   71,   72,   73,   74,   75,   77,   78,   79,   80,   81,   83,   84
   85,   86,   87,   88,   90,   91,   93,   94,   95,   96,   97,  100,  101,  102,  103,  104
  105,  106,  107,  108,  109,  110,  111,  112,  113,  115,  116,  119,  120,  121,  122,  124
  125,  126,  127,  128,  129,  130,  131,  133,  134,  135,  137,  140,  141,  142,  144,  145
  146,  147,  148,  149,  151,  152,  153,  156,  157,  158,  159,  161,  162,  163,  164,  166
  167,  168,  169,  170,  171,  173,  174,  175,  176,  177,  178,  179,  180,  181,  183,  184
  186,  187,  189,  190,  192,  193,  195,  196,  198,  199,  202,  203,  204,  206,  207,  208
  209,  210,  211,  213,  216,  217,  218,  220,  221,  222,  224,  225,  226,  228,  229,  231
  232,  234,  237,  238,  239,  242,  243,  244,  246,  247,  249,  250,  251,  252,  254,  255
  257,  259,  260,  261,  262,  264,  265,  266,  267,  268,  269,  272,  273,  274,  276,  277
  278,  279,  280,  283,  285,  286,  288,  290,  291,  293,  294,  296,  297,  298,  299,  301
  302,  304,  305,  306,  307,  308,  309,  311,  313,  314,  315,  317,  319,  320,  321,  323
  324,  325,  327,  328,  329,  330,  331,  332,  333,  334,  336,  337,  338,  340,  341,  342
  343,  344,  345,  346,  347,  351,  352,  353,  354,  355,  356,  357,  358,  360,  361,  363
  365,  366,  368,  369,  371,  372,  373,  374,  375,  377,  378,  379,  381,  382,  383,  384
  385,  386,  387,  389,  390,  391,  392,  393,  394,  396,  397,  398,  399,  401,  402,  403
  404,  405,  406,  407,  408,  410,  411,  413,  414,  415,  416,  417,  418,  419,  420,  421
** ... 115 like lines cut
*Nset, nset=NNB
    1,    2,    3,    4,    5,    6,    7,    8,   11,   12,   13,   14,   15,   16,   17,   19
   20,   21,   23,   25,   27,   29,   30,   31,   34,   35,   36,   37,   39,   40,   42,   46
   47,   48,   49,   50,   51,   52,   53,   54,   55,   58,   59,   60,   64,   66,   68,   69
   70,   71,   72,   73,   74,   75,   76,   77,   78,   79,   80,   82,   84,   85,   86,   89
   93,   94,   95,   96,   97,   98,   99,  100,  101,  103,  104,  106,  107,  108,  109,  112
  113,  115,  116,  118,  120,  122,  124,  125,  128,  129,  130,  131,  132,  133,  134,  135
  136,  137,  138,  141,  142,  146,  148,  150,  151,  152,  153,  154,  155,  156,  157,  158
  159,  160,  161,  164,  165,  169,  171,  173,  174,  175,  176,  177,  178,  179,  180,  181
  182,  183,  184,  185,  186,  187,  188,  189,  190,  191,  193,  195,  196,  198,  199,  201
  203,  205,  207,  208,  209,  210,  211,  213,  214,  216,  218,  221,  223,  225,  227,  228
  230,  231,  232,  233,  234,  236,  238,  239,  240,  241,  242,  243,  247,  248,  249,  250
  252,  255,  257,  258,  259,  260,  261,  262,  264,  265,  266,  268,  269,  270,  271,  272
  273,  274,  276,  278,  279,  281,  283,  288,  289,  290,  291,  292,  293,  294,  296,  298
  299,  300,  301,  302,  304,  305,  306,  308,  310,  312,  313,  316,  318,  319,  320,  323
  326,  327,  328,  329,  330,  331,  334,  335,  336,  337,  338,  340,  341,  343,  344,  347
  349,  350,  353,  355,  356,  357,  358,  361,  363,  364,  365,  366,  367,  368,  369,  370
  371,  372,  374,  375,  377,  378,  381,  382,  383,  384,  385,  387,  388,  391,  393,  394
  395,  396,  397,  398,  399,  400,  403,  404,  405,  406,  407,  408,  409,  410,  412,  413
  415,  416,  418,  420,  421,  422,  424,  425,  426,  428,  429,  432,  433,  434,  436,  437
  441,  442,  444,  445,  447,  450,  451,  452,  453,  454,  455,  456,  457,  460,  461,  462
** ... 35 like lines cut
*Elset, elset=NNB
    7,   14,   17,   20,   22,   26,   33,   37,   40,   41,   43,   45,   48,   52,   54,   59
   64,   70,   76,   82,   89,   92,   98,   99,  114,  117,  118,  123,  132,  136,  138,  139
  143,  150,  154,  155,  160,  165,  172,  182,  185,  188,  191,  194,  197,  200,  201,  205
  212,  214,  215,  219,  223,  227,  230,  233,  235,  236,  240,  241,  245,  248,  253,  256
  258,  263,  270,  271,  275,  281,  282,  284,  287,  289,  292,  295,  300,  303,  310,  312
  316,  318,  322,  326,  335,  339,  348,  349,  350,  359,  362,  364,  367,  370,  376,  380
  388,  395,  400,  409,  412,  423,  427,  428,  431,  435,  438,  440,  443,  449,  462,  464
  470,  473,  476,  481,  483,  484,  487,  493,  494,  498,  503,  505,  508,  516,  518,  527
  530,  534,  538,  549,  553,  554,  556,  562,  568,  574,  577,  578,  582,  584,  593,  598
  605,  606,  613,  617,  626,  628,  633,  635,  638,  640,  643,  649,  652,  659,  660,  661
  664,  669,  670,  676,  678,  680,  682,  688,  691,  693,  694,  696,  702,  714,  726,  731
  732,  735,  740,  741,  746,  748,  751,  754,  756,  761,  764,  765,  769,  772,  782,  783
  788,  791,  793,  796,  800,  802,  803,  807,  814,  815,  818,  821,  823,  824,  828,  832
  833,  835,  846,  848,  849,  850,  856,  858,  859,  860,  863,  866,  874,  880,  881,  884
  888,  890,  893,  897,  900,  904,  907,  914,  915,  917,  921,  931,  937,  942,  945,  948
  954,  957,  970,  972,  978,  981,  985,  987,  988,  989,  991,  994, 1000, 1004, 1012, 1019
 1020, 1022, 1027, 1030, 1034, 1035, 1038, 1042, 1043, 1044, 1047, 1054, 1056, 1063, 1065, 1084
 1087, 1094, 1098, 1106, 1112, 1119, 1121, 1125, 1132, 1138, 1144, 1149, 1150, 1151, 1156, 1159
 1162, 1170, 1199, 1201, 1202, 1210, 1211, 1213, 1218, 1219, 1230, 1233, 1240, 1242, 1245, 1247
 1248, 1249, 1250, 1254, 1259, 1262, 1271, 1275, 1279, 1286, 1297, 1298, 1303, 1306, 1307, 1310
** ... 25 like lines cut
*Nset, nset=SET-3
    1,    2,    3,    4,    5,    6,    7,    8,   11,   12,   13,   14,   15,   16,   17,   19
   20,   21,   23,   25,   27,   29,   30,   31,   34,   35,   36,   37,   39,   40,   42,   46
   47,   48,   49,   50,   51,   52,   53,   54,   55,   58,   59,   60,   64,   66,   68,   69
   70,   71,   72,   73,   74,   75,   76,   77,   78,   79,   80,   82,   84,   85,   86,   89
   93,   94,   95,   96,   97,   98,   99,  100,  101,  103,  104,  106,  107,  108,  109,  112
  113,  115,  116,  118,  120,  122,  124,  125,  128,  129,  130,  131,  132,  133,  134,  135
  136,  137,  138,  141,  142,  146,  148,  150,  151,  152,  153,  154,  155,  156,  157,  158
  159,  160,  161,  164,  165,  169,  171,  173,  174,  175,  176,  177,  178,  179,  180,  181
  182,  183,  184,  185,  186,  187,  188,  189,  190,  191,  193,  195,  196,  198,  199,  201
  203,  205,  207,  208,  209,  210,  211,  213,  214,  216,  218,  221,  223,  225,  227,  228
  230,  231,  232,  233,  234,  236,  238,  239,  240,  241,  242,  243,  247,  248,  249,  250
  252,  255,  257,  258,  259,  260,  261,  262,  264,  265,  266,  268,  269,  270,  271,  272
  273,  274,  276,  278,  279,  281,  283,  288,  289,  290,  291,  292,  293,  294,  296,  298
  299,  300,  301,  302,  304,  305,  306,  308,  310,  312,  313,  316,  318,  319,  320,  323
  326,  327,  328,  329,  330,  331,  334,  335,  336,  337,  338,  340,  341,  343,  344,  347
  349,  350,  353,  355,  356,  357,  358,  361,  363,  364,  365,  366,  367,  368,  369,  370
  371,  372,  374,  375,  377,  378,  381,  382,  383,  384,  385,  387,  388,  391,  393,  394
  395,  396,  397,  398,  399,  400,  403,  404,  405,  406,  407,  408,  409,  410,  412,  413
  415,  416,  418,  420,  421,  422,  424,  425,  426,  428,  429,  432,  433,  434,  436,  437
  441,  442,  444,  445,  447,  450,  451,  452,  453,  454,  455,  456,  457,  460,  461,  462
** ... 35 like lines cut
*Elset, elset=SET-3
    7,   14,   17,   20,   22,   26,   33,   37,   40,   41,   43,   45,   48,   52,   54,   59
   64,   70,   76,   82,   89,   92,   98,   99,  114,  117,  118,  123,  132,  136,  138,  139
  143,  150,  154,  155,  160,  165,  172,  182,  185,  188,  191,  194,  197,  200,  201,  205
  212,  214,  215,  219,  223,  227,  230,  233,  235,  236,  240,  241,  245,  248,  253,  256
  258,  263,  270,  271,  275,  281,  282,  284,  287,  289,  292,  295,  300,  303,  310,  312
  316,  318,  322,  326,  335,  339,  348,  349,  350,  359,  362,  364,  367,  370,  376,  380
  388,  395,  400,  409,  412,  423,  427,  428,  431,  435,  438,  440,  443,  449,  462,  464
  470,  473,  476,  481,  483,  484,  487,  493,  494,  498,  503,  505,  508,  516,  518,  527
  530,  534,  538,  549,  553,  554,  556,  562,  568,  574,  577,  578,  582,  584,  593,  598
  605,  606,  613,  617,  626,  628,  633,  635,  638,  640,  643,  649,  652,  659,  660,  661
  664,  669,  670,  676,  678,  680,  682,  688,  691,  693,  694,  696,  702,  714,  726,  731
  732,  735,  740,  741,  746,  748,  751,  754,  756,  761,  764,  765,  769,  772,  782,  783
  788,  791,  793,  796,  800,  802,  803,  807,  814,  815,  818,  821,  823,  824,  828,  832
  833,  835,  846,  848,  849,  850,  856,  858,  859,  860,  863,  866,  874,  880,  881,  884
  888,  890,  893,  897,  900,  904,  907,  914,  915,  917,  921,  931,  937,  942,  945,  948
  954,  957,  970,  972,  978,  981,  985,  987,  988,  989,  991,  994, 1000, 1004, 1012, 1019
 1020, 1022, 1027, 1030, 1034, 1035, 1038, 1042, 1043, 1044, 1047, 1054, 1056, 1063, 1065, 1084
 1087, 1094, 1098, 1106, 1112, 1119, 1121, 1125, 1132, 1138, 1144, 1149, 1150, 1151, 1156, 1159
 1162, 1170, 1199, 1201, 1202, 1210, 1211, 1213, 1218, 1219, 1230, 1233, 1240, 1242, 1245, 1247
 1248, 1249, 1250, 1254, 1259, 1262, 1271, 1275, 1279, 1286, 1297, 1298, 1303, 1306, 1307, 1310
** ... 25 like lines cut
*Nset, nset=SET-4, generate
    1,  1272,     1
*Elset, elset=SET-4
    1,    2,    3,    4,    5,    6,    8,    9,   10,   11,   12,   13,   15,   16,   18,   19
   21,   23,   24,   25,   27,   28,   29,   30,   31,   32,   34,   35,   36,   38,   39,   42
   44,   46,   47,   49,   50,   51,   53,   55,   56,   57,   58,   60,   61,   62,   63,   65
   66,   67,   68,   69,   71,   72,   73,   74,   75,   77,   78,   79,   80,   81,   83,   84
   85,   86,   87,   88,   90,   91,   93,   94,   95,   96,   97,  100,  101,  102,  103,  104
  105,  106,  107,  108,  109,  110,  111,  112,  113,  115,  116,  119,  120,  121,  122,  124
  125,  126,  127,  128,  129,  130,  131,  133,  134,  135,  137,  140,  141,  142,  144,  145
  146,  147,  148,  149,  151,  152,  153,  156,  157,  158,  159,  161,  162,  163,  164,  166
  167,  168,  169,  170,  171,  173,  174,  175,  176,  177,  178,  179,  180,  181,  183,  184
  186,  187,  189,  190,  192,  193,  195,  196,  198,  199,  202,  203,  204,  206,  207,  208
  209,  210,  211,  213,  216,  217,  218,  220,  221,  222,  224,  225,  226,  228,  229,  231
  232,  234,  237,  238,  239,  242,  243,  244,  246,  247,  249,  250,  251,  252,  254,  255
  257,  259,  260,  261,  262,  264,  265,  266,  267,  268,  269,  272,  273,  274,  276,  277
  278,  279,  280,  283,  285,  286,  288,  290,  291,  293,  294,  296,  297,  298,  299,  301
  302,  304,  305,  306,  307,  308,  309,  311,  313,  314,  315,  317,  319,  320,  321,  323
  324,  325,  327,  328,  329,  330,  331,  332,  333,  334,  336,  337,  338,  340,  341,  342
  343,  344,  345,  346,  347,  351,  352,  353,  354,  355,  356,  357,  358,  360,  361,  363
  365,  366,  368,  369,  371,  372,  373,  374,  375,  377,  378,  379,  381,  382,  383,  384
  385,  386,  387,  389,  390,  391,  392,  393,  394,  396,  397,  398,  399,  401,  402,  403
  404,  405,  406,  407,  408,  410,  411,  413,  414,  415,  416,  417,  418,  419,  420,  421
** ... 115 like lines cut
** Section: Section-1-SET-4
*Solid Section, elset=SET-4, material=ORIGINAL
1.,
** Section: Section-2-SET-3
*Solid Section, elset=SET-3, material=NNB
1.,
** Section: Section-3-SET-8
*Solid Section, elset=SET-8, material=NNB
1.,
*End Part
**  
**
** ASSEMBLY
**
*Assembly, name=Assembly
**  
*Instance, name=PART-4-1, part=PART-4
*End Instance
**  
*Nset, nset=NODESET_0, instance=PART-4-1
 31,
*Nset, nset=NODESET_1, instance=PART-4-1
 30,
*Nset, nset=NODESET_2, instance=PART-4-1
 8,
*Nset, nset=NODESET_3, instance=PART-4-1
 46,
*Nset, nset=NODESET_4, instance=PART-4-1
 52,
*Nset, nset=NODESET_5, instance=PART-4-1
 69,
*Nset, nset=NODESET_6, instance=PART-4-1
 77,
*Nset, nset=NODESET_7, instance=PART-4-1
 89,
*Nset, nset=NODESET_8, instance=PART-4-1
 100,
*Nset, nset=NODESET_9, instance=PART-4-1
 112,
*Nset, nset=NODESET_10, instance=PART-4-1
 118,
*Nset, nset=NODESET_11, instance=PART-4-1
 135,
*Nset, nset=NODESET_12, instance=PART-4-1
 150,
*Nset, nset=NODESET_13, instance=PART-4-1
 158,
*Nset, nset=NODESET_14, instance=PART-4-1
 173,
*Nset, nset=NODESET_15, instance=PART-4-1
 181,
*Nset, nset=NODESET_16, instance=PART-4-1
 25,
*Nset, nset=NODESET_17, instance=PART-4-1
 23,
*Nset, nset=NODESET_18, instance=PART-4-1
 5,
*Nset, nset=NODESET_19, instance=PART-4-1
 42,
** ... 88 like lines cut
*Nset, nset=SET-3, instance=PART-4-1
   15,   27,   29,   31,  195,  198,  209,  213,  415,  418,  421,  432,  719,  726,  731,  737
  907,  912,  920,  928, 1099, 1102, 1111, 1116
*Nset, nset=SET-4, instance=PART-4-1
  175,  176,  180,  181,  381,  383,  394,  396,  400,  676,  678,  680,  682,  685,  690,  701
  707,  889,  891,  893,  895, 1067, 1068, 1081, 1084, 1262, 1264, 1266, 1272
*Nset, nset=SET-5, instance=PART-4-1
 24,
*Nset, nset=SET-8, instance=PART-4-1
   8,  30,  31,  46,  52,  69,  77,  89, 100, 112, 118, 135, 150, 158, 173, 181
*Nset, nset=SET-9, instance=PART-4-1
   5,  23,  25,  42,  53,  59,  75,  86,  99, 109, 125, 134, 148, 156, 171, 179
*Nset, nset=SET-10, instance=PART-4-1
 1092, 1112, 1116, 1130, 1146, 1156, 1173, 1176, 1197, 1199, 1208, 1224, 1240, 1248, 1270, 1272
*Nset, nset=SET-11, instance=PART-4-1
 1091, 1113, 1114, 1131, 1145, 1147, 1172, 1174, 1196, 1198, 1222, 1223, 1238, 1247, 1268, 1271
*Nset, nset=SORTED-SET-8, instance=PART-4-1
   8,  30,  31,  46,  52,  69,  77,  89, 100, 112, 118, 135, 150, 158, 173, 181
*Nset, nset=SORTEDSET-9, instance=PART-4-1
   5,  23,  25,  42,  53,  59,  75,  86,  99, 109, 125, 134, 148, 156, 171, 179
*Nset, nset=SORTEDSET-10, instance=PART-4-1
 1092, 1112, 1116, 1130, 1146, 1156, 1173, 1176, 1197, 1199, 1208, 1224, 1240, 1248, 1270, 1272
*Nset, nset=SORTEDSET-11, instance=PART-4-1
 1091, 1113, 1114, 1131, 1145, 1147, 1172, 1174, 1196, 1198, 1222, 1223, 1238, 1247, 1268, 1271
*Nset, nset=Set-76, instance=PART-4-1
 719,
** Constraint: Eqn-1
*Equation
2
NODESET_31, 2, 1.
NODESET_63, 2, -1.
** Constraint: Eqn-2
*Equation
2
NODESET_30, 2, 1.
NODESET_62, 2, -1.
** Constraint: Eqn-3
*Equation
2
NODESET_29, 2, 1.
NODESET_61, 2, -1.
** Constraint: Eqn-4
*Equation
2
NODESET_28, 2, 1.
NODESET_60, 2, -1.
** Constraint: Eqn-5
*Equation
2
NODESET_27, 2, 1.
NODESET_59, 2, -1.
** Constraint: Eqn-6
*Equation
2
NODESET_26, 2, 1.
NODESET_58, 2, -1.
** Constraint: Eqn-7
*Equation
2
NODESET_25, 2, 1.
NODESET_57, 2, -1.
** Constraint: Eqn-8
*Equation
2
NODESET_24, 2, 1.
NODESET_56, 2, -1.
** Constraint: Eqn-9
*Equation
2
NODESET_23, 2, 1.
NODESET_55, 2, -1.
** Constraint: Eqn-10
*Equation
2
NODESET_22, 2, 1.
NODESET_54, 2, -1.
** Constraint: Eqn-11
*Equation
2
NODESET_21, 2, 1.
NODESET_53, 2, -1.
** Constraint: Eqn-12
*Equation
2
NODESET_20, 2, 1.
NODESET_52, 2, -1.
** Constraint: Eqn-13
*Equation
2
NODESET_19, 2, 1.
NODESET_51, 2, -1.
** Constraint: Eqn-14
*Equation
2
NODESET_18, 2, 1.
NODESET_50, 2, -1.
** Constraint: Eqn-15
*Equation
2
NODESET_17, 2, 1.
NODESET_49, 2, -1.
** Constraint: Eqn-16
*Equation
2
NODESET_16, 2, 1.
NODESET_48, 2, -1.
** Constraint: Eqn-17
*Equation
2
NODESET_15, 2, 1.
NODESET_47, 2, -1.
** Constraint: Eqn-18
*Equation
2
NODESET_14, 2, 1.
NODESET_46, 2, -1.
** Constraint: Eqn-19
*Equation
2
NODESET_13, 2, 1.
NODESET_45, 2, -1.
** Constraint: Eqn-20
*Equation
2
NODESET_12, 2, 1.
NODESET_44, 2, -1.
** Constraint: Eqn-21
*Equation
2
NODESET_11, 2, 1.
NODESET_43, 2, -1.
** Constraint: Eqn-22
*Equation
2
NODESET_10, 2, 1.
NODESET_42, 2, -1.
** Constraint: Eqn-23
*Equation
2
NODESET_9, 2, 1.
NODESET_41, 2, -1.
** Constraint: Eqn-24
*Equation
2
NODESET_8, 2, 1.
NODESET_40, 2, -1.
** Constraint: Eqn-25
*Equation
2
NODESET_7, 2, 1.
NODESET_39, 2, -1.
** Constraint: Eqn-26
*Equation
2
NODESET_6, 2, 1.
NODESET_38, 2, -1.
** Constraint: Eqn-27
*Equation
2
NODESET_5, 2, 1.
NODESET_37, 2, -1.
** Constraint: Eqn-28
*Equation
2
NODESET_4, 2, 1.
NODESET_36, 2, -1.
** Constraint: Eqn-29
*Equation
2
NODESET_3, 2, 1.
NODESET_35, 2, -1.
** Constraint: Eqn-30
*Equation
2
NODESET_2, 2, 1.
NODESET_34, 2, -1.
** Constraint: Eqn-31
*Equation
2
NODESET_1, 2, 1.
NODESET_33, 2, -1.
** Constraint: Eqn-32
*Equation
2
NODESET_0, 2, 1.
NODESET_32, 2, -1.
** Constraint: Eqn-33
*Equation
2
NODESET_31, 1, 1.
NODESET_63, 1, -1.
** Constraint: Eqn-34
*Equation
2
NODESET_30, 1, 1.
NODESET_62, 1, -1.
** Constraint: Eqn-35
*Equation
2
NODESET_29, 1, 1.
NODESET_61, 1, -1.
** Constraint: Eqn-36
*Equation
2
NODESET_28, 1, 1.
NODESET_60, 1, -1.
** Constraint: Eqn-37
*Equation
2
NODESET_27, 1, 1.
NODESET_59, 1, -1.
** Constraint: Eqn-38
*Equation
2
NODESET_26, 1, 1.
NODESET_58, 1, -1.
** Constraint: Eqn-39
*Equation
2
NODESET_25, 1, 1.
NODESET_57, 1, -1.
** Constraint: Eqn-40
*Equation
2
NODESET_24, 1, 1.
NODESET_56, 1, -1.
** Constraint: Eqn-41
*Equation
2
NODESET_23, 1, 1.
NODESET_55, 1, -1.
** Constraint: Eqn-42
*Equation
2
NODESET_22, 1, 1.
NODESET_54, 1, -1.
** Constraint: Eqn-43
*Equation
2
NODESET_21, 1, 1.
NODESET_53, 1, -1.
** Constraint: Eqn-44
*Equation
2
NODESET_20, 1, 1.
NODESET_52, 1, -1.
** Constraint: Eqn-45
*Equation
2
NODESET_19, 1, 1.
NODESET_51, 1, -1.
** Constraint: Eqn-46
*Equation
2
NODESET_18, 1, 1.
NODESET_50, 1, -1.
** Constraint: Eqn-47
*Equation
2
NODESET_17, 1, 1.
NODESET_49, 1, -1.
** Constraint: Eqn-48
*Equation
2
NODESET_16, 1, 1.
NODESET_48, 1, -1.
** Constraint: Eqn-49
*Equation
2
NODESET_15, 1, 1.
NODESET_47, 1, -1.
** Constraint: Eqn-50
*Equation
2
NODESET_14, 1, 1.
NODESET_46, 1, -1.
** Constraint: Eqn-51
*Equation
2
NODESET_13, 1, 1.
NODESET_45, 1, -1.
** Constraint: Eqn-52
*Equation
2
NODESET_12, 1, 1.
NODESET_44, 1, -1.
** Constraint: Eqn-53
*Equation
2
NODESET_11, 1, 1.
NODESET_43, 1, -1.
** Constraint: Eqn-54
*Equation
2
NODESET_10, 1, 1.
NODESET_42, 1, -1.
** Constraint: Eqn-55
*Equation
2
NODESET_9, 1, 1.
NODESET_41, 1, -1.
** Constraint: Eqn-56
*Equation
2
NODESET_8, 1, 1.
NODESET_40, 1, -1.
** Constraint: Eqn-57
*Equation
2
NODESET_7, 1, 1.
NODESET_39, 1, -1.
** Constraint: Eqn-58
*Equation
2
NODESET_6, 1, 1.
NODESET_38, 1, -1.
** Constraint: Eqn-59
*Equation
2
NODESET_5, 1, 1.
NODESET_37, 1, -1.
** Constraint: Eqn-60
*Equation
2
NODESET_4, 1, 1.
NODESET_36, 1, -1.
** Constraint: Eqn-61
*Equation
2
NODESET_3, 1, 1.
NODESET_35, 1, -1.
** Constraint: Eqn-62
*Equation
2
NODESET_2, 1, 1.
NODESET_34, 1, -1.
** Constraint: Eqn-63
*Equation
2
NODESET_1, 1, 1.
NODESET_33, 1, -1.
** Constraint: Eqn-64
*Equation
2
NODESET_0, 1, 1.
NODESET_32, 1, -1.
*End Assembly
** 
** MATERIALS
** 
*Material, name=MATERIAL-1
*Density
1.,
*Elastic
70000., 0.3
*Material, name=NNB
*Elastic
 0.01, 0.3
*Material, name=ORIGINAL
*Elastic
90000., 0.3
** 
** BOUNDARY CONDITIONS
** 
** Name: Disp-BC-1 Type: Displacement/Rotation
*Boundary
SET-3, 1, 1
** Name: Disp-BC-2 Type: Displacement/Rotation
*Boundary
SET-3, 2, 2
** Name: Disp-BC-3 Type: Displacement/Rotation
*Boundary
SET-3, 3, 3
** Name: Disp-BC-4 Type: Displacement/Rotation
*Boundary
SET-3, 4, 4
** Name: Disp-BC-5 Type: Displacement/Rotation
*Boundary
SET-3, 5, 5
** Name: Disp-BC-6 Type: Displacement/Rotation
*Boundary
SET-3, 6, 6
** ----------------------------------------------------------------
** 
** STEP: Step-2
** 
*Step, name=Step-2, nlgeom=YES, inc=200
*Static
0.001, 1., 1e-08, 0.01
** 
** BOUNDARY CONDITIONS
** 
** Name: BC-9 Type: Displacement/Rotation
*Boundary, op=NEW
Set-76, 1, 1
** Name: Disp-BC-1 Type: Displacement/Rotation
*Boundary, op=NEW
** Name: Disp-BC-2 Type: Displacement/Rotation
*Boundary, op=NEW
** Name: Disp-BC-3 Type: Displacement/Rotation
*Boundary, op=NEW
** Name: Disp-BC-4 Type: Displacement/Rotation
*Boundary, op=NEW
** Name: Disp-BC-5 Type: Displacement/Rotation
*Boundary, op=NEW
** Name: Disp-BC-6 Type: Displacement/Rotation
*Boundary, op=NEW
** Name: Disp-BC-7 Type: Displacement/Rotation
*Boundary, op=NEW
SET-3, 2, 2, -0.1
** Name: Disp-BC-8 Type: Displacement/Rotation
*Boundary, op=NEW
SET-4, 2, 2, 0.1
** 
** OUTPUT REQUESTS
** 
*Restart, write, frequency=0
** 
** FIELD OUTPUT: F-Output-1
** 
*Output, field, variable=PRESELECT
** 
** HISTORY OUTPUT: H-Output-1
** 
*Output, history, variable=PRESELECT
*End Step
